OPT_V10/Two_days_MCY3_MIQCPM1/powerflow_results_t4.txt
Pandapower Network Debug Info
==================================================

BUS:
       vm_pu  va_degree      p_mw    q_mvar
0   0.992424   0.142908  0.000994  0.000964
1   0.987852   0.233820  0.001611  0.002216
2   0.983921   0.322840  0.001849  0.003111
3   0.988058   0.238881  0.002825  0.004662
4   0.999880   0.000347  0.011225  0.010390
5   0.999866   0.000312  0.011305  0.008100
6   0.999855   0.000283  0.014271  0.010096
7   0.999926   0.000351  0.000000  0.000000
8   0.999926   0.000358  0.000000  0.000000
9   1.000000   0.000000 -0.044245 -0.044653
10  1.000000   0.000006  0.000000  0.000000
--------------------------------------------------

LINE:
   p_from_mw  q_from_mvar   p_to_mw  q_to_mvar         pl_mw       ql_mvar  i_from_ka   i_to_ka      i_ka  vm_from_pu  va_from_degree  vm_to_pu  va_to_degree  loading_percent
0   0.044235     0.040653 -0.044231  -0.040650  3.530419e-06  2.752726e-06   0.002312  0.002312  0.002312    1.000000        0.000006  0.999926      0.000351         1.005390
1   0.036803     0.028588 -0.036802  -0.028586  1.679616e-06  1.309624e-06   0.001794  0.001794  0.001794    0.999926        0.000351  0.999880      0.000347         0.779931
2   0.007418     0.011062 -0.007335  -0.010998  8.298697e-05  6.470630e-05   0.019226  0.019226  0.019226    0.999926        0.000358  0.992424      0.142908         8.359172
3  -0.025576    -0.018196  0.025576   0.018196  3.408065e-07  2.657325e-07   0.001208  0.001208  0.001208    0.999866        0.000312  0.999880      0.000347         0.525349
4  -0.014271    -0.010096  0.014271   0.010097  1.494986e-07  1.165665e-07   0.000673  0.000673  0.000673    0.999855        0.000283  0.999866      0.000312         0.292587
5  -0.003472    -0.005336  0.003496   0.005356  2.457213e-05  1.915929e-05   0.009302  0.009302  0.009302    0.987852        0.233820  0.992424      0.142908         4.044359
6  -0.002825    -0.004662  0.002845   0.004678  2.032318e-05  1.584631e-05   0.007963  0.007963  0.007963    0.988058        0.238881  0.992424      0.142908         3.462276
7  -0.001849    -0.003111  0.001861   0.003120  1.223593e-05  9.540556e-06   0.005308  0.005308  0.005308    0.983921        0.322840  0.987852      0.233820         2.308039
--------------------------------------------------

TRAFO:
    p_hv_mw  q_hv_mvar   p_lv_mw  q_lv_mvar    pl_mw  ql_mvar   i_hv_ka   i_lv_ka  vm_hv_pu  va_hv_degree  vm_lv_pu  va_lv_degree  loading_percent
0  0.007428   0.012062 -0.007418  -0.011062  0.00001    0.001  0.000545  0.019226  0.999926      0.000351  0.999926      0.000358         0.141669
1  0.044245   0.044653 -0.044235  -0.040653  0.00001    0.004  0.000518  0.002312  1.000000      0.000000  1.000000      0.000006         0.157151
--------------------------------------------------
